ElectricityNetView/example/dss/cm_Power_seq_kVA.txt

SYMMETRICAL COMPONENT POWERS BY CIRCUIT ELEMENT (first 3 phases)                                     Excess Power

Element          Term    P1(kW)   Q1(kvar)       P2         Q2      P0      Q0       P_Norm      Q_Norm     P_Emerg    Q_Emerg

"Vsource.SOURCE"  1      -23.9      294.9        0.0       -0.0    -0.0    -0.0
"Vsource.SOURCE"  2        0.0        0.0        0.0        0.0     0.0     0.0
"Line.中堡线"        1        3.7      -44.1       -0.0       -0.0    -0.0     0.0        0.0        0.0        0.0        0.0
"Line.中堡线"        2       -3.7       39.0        0.0        0.0     0.0    -0.0
"Line.家堡线"        1       47.9       30.8        0.0        0.0     0.0     0.0        0.0        0.0        0.0        0.0
"Line.家堡线"        2      -47.9      -35.9       -0.0       -0.0     0.0    -0.0
"Line.家长线"        1      -80.7      -29.5       -0.0        0.0     0.0    -0.0        0.0        0.0        0.0        0.0
"Line.家长线"        2       80.7       24.4        0.0        0.0    -0.0     0.0
"Line.海中线"        1      127.0     -130.9       -0.0        0.0     0.0     0.0        0.0        0.0        0.0        0.0
"Line.海中线"        2     -127.0      125.7        0.0       -0.0    -0.0    -0.0
"Line.中城线"        1       16.3       -8.0       -0.0        0.0     0.0     0.0        0.0        0.0        0.0        0.0
"Line.中城线"        2      -16.3        2.9        0.0       -0.0     0.0    -0.0
"Line.中堡线2"       1        3.7      -44.1       -0.0       -0.0    -0.0     0.0        0.0        0.0        0.0        0.0
"Line.中堡线2"       2       -3.7       39.0        0.0        0.0     0.0    -0.0
"Line.中红线"        1       -4.0       -0.2        0.0       -0.0    -0.0     0.0        0.0        0.0        0.0        0.0
"Line.中红线"        2        4.0       -5.0       -0.0        0.0     0.0    -0.0
"Line.中新线"        1      -22.8       26.3        0.0        0.0    -0.0    -0.0        0.0        0.0        0.0        0.0
"Line.中新线"        2       22.8      -31.4       -0.0       -0.0     0.0     0.0
"Line.中南线"        1       16.3       -8.0       -0.0        0.0     0.0     0.0        0.0        0.0        0.0        0.0
"Line.中南线"        2      -16.3        2.9        0.0       -0.0     0.0    -0.0
"Line.堡竖线"        1       79.5        4.8       -0.0        0.0    -0.0     0.0        0.0        0.0        0.0        0.0
"Line.堡竖线"        2      -79.5       -9.9        0.0       -0.0    -0.0    -0.0
"Line.堡长线"        1        5.7       10.6        0.0        0.0    -0.0     0.0        0.0        0.0        0.0        0.0
"Line.堡长线"        2       -5.7      -15.7       -0.0       -0.0    -0.0    -0.0
"Line.家汲线"        1       28.6        6.5        0.0        0.0     0.0     0.0        0.0        0.0        0.0        0.0
"Line.家汲线"        2      -28.6      -11.7       -0.0        0.0    -0.0    -0.0
"Line.家堡线2"       1       47.9       30.8        0.0        0.0     0.0     0.0        0.0        0.0        0.0        0.0
"Line.家堡线2"       2      -47.9      -35.9       -0.0       -0.0     0.0    -0.0
"Line.家长线2"       1      -80.7      -29.5       -0.0        0.0     0.0    -0.0        0.0        0.0        0.0        0.0
"Line.家长线2"       2       80.7       24.4        0.0        0.0    -0.0     0.0
"Line.长江线"        1      -13.4       28.2        0.0        0.0     0.0    -0.0        0.0        0.0        0.0        0.0
"Line.长江线"        2       13.4      -33.4       -0.0       -0.0    -0.0     0.0
"Line.崇海线"        1      104.2     -102.0       -0.0        0.0     0.0     0.0        0.0        0.0        0.0        0.0
"Line.崇海线"        2     -104.2       96.9        0.0       -0.0    -0.0    -0.0
"Line.双东线"        1        8.0       -5.5        0.0        0.0     0.0     0.0        0.0        0.0        0.0        0.0
"Line.双东线"        2       -8.0        0.3       -0.0       -0.0    -0.0    -0.0
"Line.双庙线"        1        1.6        0.6       -0.0        0.0    -0.0    -0.0        0.0        0.0        0.0        0.0
"Line.双庙线"        2       -1.6       -5.8        0.0       -0.0     0.0     0.0
"Line.园区线"        1       17.7       -6.5       -0.0        0.0    -0.0     0.0        0.0        0.0        0.0        0.0
"Line.园区线"        2      -17.7        1.4        0.0       -0.0     0.0     0.0
"Line.双明线"        1       17.7       -6.5       -0.0       -0.0     0.0     0.0        0.0        0.0        0.0        0.0
"Line.双明线"        2      -17.7        1.4        0.0        0.0    -0.0    -0.0
"Line.双建线"        1        7.1       -9.1       -0.0       -0.0    -0.0     0.0        0.0        0.0        0.0        0.0
"Line.双建线"        2       -7.1        4.0        0.0        0.0     0.0     0.0
"Line.双湄线"        1       22.1       -6.5       -0.0       -0.0     0.0     0.0        0.0        0.0        0.0        0.0
"Line.双湄线"        2      -22.1        1.4        0.0        0.0    -0.0    -0.0
"Line.双同线"        1       22.1       -6.5       -0.0       -0.0     0.0     0.0        0.0        0.0        0.0        0.0
"Line.双同线"        2      -22.1        1.4        0.0        0.0    -0.0    -0.0
"Line.双南线"        1       16.3       -8.0       -0.0        0.0     0.0     0.0        0.0        0.0        0.0        0.0
"Line.双南线"        2      -16.3        2.9        0.0       -0.0     0.0    -0.0
"Line.堡滧线"        1        6.1      -13.4       -0.0       -0.0     0.0    -0.0        0.0        0.0        0.0        0.0
"Line.堡滧线"        2       -6.1        8.2        0.0       -0.0    -0.0     0.0
"Line.堡镇线"        1        1.2       -3.9        0.0       -0.0     0.0     0.0        0.0        0.0        0.0        0.0
"Line.堡镇线"        2       -1.2       -1.2       -0.0        0.0    -0.0     0.0
"Line.堡船线"        1        1.2       -3.9        0.0       -0.0     0.0     0.0        0.0        0.0        0.0        0.0
"Line.堡船线"        2       -1.2       -1.2       -0.0        0.0    -0.0     0.0
"Line.堡港线"        1        6.4       -1.7        0.0       -0.0    -0.0     0.0        0.0        0.0        0.0        0.0
"Line.堡港线"        2       -6.4       -3.4       -0.0       -0.0    -0.0    -0.0
"Line.家裕线"        1       11.2       -3.2       -0.0       -0.0    -0.0    -0.0        0.0        0.0        0.0        0.0
"Line.家裕线"        2      -11.2       -1.9       -0.0        0.0     0.0     0.0
"Line.家前线"        1       11.2       -3.2       -0.0       -0.0    -0.0    -0.0        0.0        0.0        0.0        0.0
"Line.家前线"        2      -11.2       -1.9       -0.0        0.0     0.0     0.0
"Line.家陈线"        1       11.2       -3.2       -0.0       -0.0    -0.0    -0.0        0.0        0.0        0.0        0.0
"Line.家陈线"        2      -11.2       -1.9       -0.0        0.0     0.0     0.0
"Line.南同线"        1        5.8       -1.1       -0.0       -0.0    -0.0    -0.0        0.0        0.0        0.0        0.0
"Line.南同线"        2       -5.8       -4.0       -0.0        0.0     0.0     0.0
"Line.南湄线"        1        5.8       -1.1       -0.0       -0.0    -0.0    -0.0        0.0        0.0        0.0        0.0
"Line.南湄线"        2       -5.8       -4.0       -0.0        0.0     0.0     0.0
"Line.南明线"        1        1.4       -1.1        0.0       -0.0     0.0     0.0        0.0        0.0        0.0        0.0
"Line.南明线"        2       -1.4       -4.1       -0.0        0.0    -0.0     0.0
"Line.南园线"        1        1.4       -1.1        0.0        0.0    -0.0     0.0        0.0        0.0        0.0        0.0
"Line.南园线"        2       -1.4       -4.1        0.0       -0.0     0.0     0.0
"Line.南安线"        1       13.2       -2.4       -0.0       -0.0     0.0     0.0        0.0        0.0        0.0        0.0
"Line.南安线"        2      -13.2       -2.7       -0.0        0.0    -0.0    -0.0
"Line.轧钢线"        1       13.2       -2.4       -0.0       -0.0     0.0     0.0        0.0        0.0        0.0        0.0
"Line.轧钢线"        2      -13.2       -2.7       -0.0        0.0    -0.0    -0.0
"Line.海进线"        1       29.2        9.5       -0.0        0.0    -0.0    -0.0        0.0        0.0        0.0        0.0
"Line.海进线"        2      -29.2      -14.6       -0.0       -0.0     0.0    -0.0
"Line.星新线"        1       18.8      -29.0        0.0       -0.0     0.0     0.0        0.0        0.0        0.0        0.0
"Line.星新线"        2      -18.8       23.9       -0.0        0.0    -0.0    -0.0
"Line.海三线"        1       12.8      -17.3        0.0        0.0    -0.0     0.0        0.0        0.0        0.0        0.0
"Line.海三线"        2      -12.8       12.2       -0.0        0.0    -0.0    -0.0
"Line.红海线"        1       18.8      -29.0        0.0       -0.0     0.0     0.0        0.0        0.0        0.0        0.0
"Line.红海线"        2      -18.8       23.9       -0.0        0.0    -0.0    -0.0
"Line.红庙站"        1        5.6       -1.7       -0.0        0.0     0.0    -0.0        0.0        0.0        0.0        0.0
"Line.红庙站"        2       -5.6       -3.4        0.0       -0.0    -0.0     0.0
"Line.红风线"        1       12.0       -7.9        0.0        0.0     0.0    -0.0        0.0        0.0        0.0        0.0
"Line.红风线"        2      -12.0        2.7        0.0       -0.0    -0.0     0.0
"Line.长卫线"        1       11.0       -2.9        0.0        0.0     0.0     0.0        0.0        0.0        0.0        0.0
"Line.长卫线"        2      -11.0       -2.3       -0.0       -0.0    -0.0    -0.0
"Line.长前线"        1        5.9      -10.2       -0.0       -0.0    -0.0    -0.0        0.0        0.0        0.0        0.0
"Line.长前线"        2       -5.9        5.0       -0.0        0.0    -0.0    -0.0
"Line.竖富线"        1       36.1        4.0        0.0       -0.0    -0.0    -0.0        0.0        0.0        0.0        0.0
"Line.竖富线"        2      -36.1       -9.1       -0.0        0.0    -0.0    -0.0
"Line.竖新线"        1       36.1        4.0        0.0       -0.0    -0.0    -0.0        0.0        0.0        0.0        0.0
"Line.竖新线"        2      -36.1       -9.1       -0.0        0.0    -0.0    -0.0
"Line.汲滧线"        1       25.4       10.9       -0.0        0.0    -0.0     0.0        0.0        0.0        0.0        0.0
"Line.汲滧线"        2      -25.4      -16.0        0.0       -0.0     0.0    -0.0
"Line.建森线"        1        1.2       -3.9        0.0        0.0     0.0     0.0        0.0        0.0        0.0        0.0
"Line.建森线"        2       -1.2       -1.2       -0.0       -0.0    -0.0    -0.0
"Line.庙三线"        1       11.6      -13.4       -0.0        0.0    -0.0     0.0        0.0        0.0        0.0        0.0
"Line.庙三线"        2      -11.6        8.3        0.0       -0.0    -0.0    -0.0
"Line.风启线"        1        1.2       -3.9       -0.0        0.0    -0.0     0.0        0.0        0.0        0.0        0.0
"Line.风启线"        2       -1.2       -1.2        0.0       -0.0    -0.0    -0.0
"Line.港前线"        1       -5.2       -7.3       -0.0        0.0    -0.0    -0.0        0.0        0.0        0.0        0.0
"Line.港前线"        2        5.2        2.2       -0.0        0.0     0.0    -0.0
"Load.南通海门变"      1     -207.3      -62.0       -0.0       -0.0    -0.0    -0.0
"Load.长兴站"        1     -161.4      -48.8       -0.0       -0.0    -0.0    -0.0
"Load.中双港站"       1        1.2        0.4        0.0        0.0     0.0     0.0
"Load.堡北站"        1        2.9        1.5        0.0        0.0     0.0     0.0
"Load.陈家镇站"       1        3.4        0.6        0.0        0.0     0.0     0.0
"Load.红星站"        1        2.6        0.2        0.0        0.0     0.0     0.0
"Load.南门站"        1        8.1        0.5        0.0        0.0     0.0     0.0
"Load.新海站"        1        1.7        0.3        0.0        0.0     0.0     0.0
"Load.长江站"        1        2.3        0.5        0.0        0.0     0.0     0.0
"Load.竖河站"        1        7.2        1.9        0.0        0.0     0.0     0.0
"Load.汲浜站"        1        3.2        0.8        0.0        0.0     0.0     0.0
"Load.建设站"        1        5.9       -0.0        0.0       -0.0     0.0    -0.0
"Load.大同站"        1       27.9        2.6        0.0        0.0     0.0     0.0
"Load.新河站"        1       36.1        9.1        0.0        0.0     0.0     0.0
"Load.堡镇站"        1        1.2        1.2        0.0        0.0     0.0     0.0
"Load.陈东站"        1       11.2        1.9        0.0        0.0     0.0     0.0
"Load.森林站"        1        1.2        1.2        0.0        0.0     0.0     0.0
"Load.湄洲站"        1       27.9        2.6        0.0        0.0     0.0     0.0
"Load.崇安站"        1       13.2        2.7        0.0        0.0     0.0     0.0
"Load.新闸站"        1       13.2        2.7        0.0        0.0     0.0     0.0
"Load.跃进站"        1       29.2       14.6        0.0        0.0     0.0     0.0
"Load.富盛站"        1       36.1        9.1        0.0        0.0     0.0     0.0
"Load.上船站"        1        1.2        1.2        0.0        0.0     0.0     0.0
"Load.明珠站"        1       19.1        2.7        0.0        0.0     0.0     0.0
"Load.三星站"        1        1.2        1.2        0.0        0.0     0.0     0.0
"Load.东风站"        1       18.8        0.9        0.0        0.0     0.0     0.0
"Load.裕安站"        1       11.2        1.9        0.0        0.0     0.0     0.0
"Load.前哨站"        1       11.2        1.9        0.0        0.0     0.0     0.0
"Load.园区站"        1       19.1        2.7        0.0        0.0     0.0     0.0
"Load.启隆站"        1        1.2        1.2        0.0        0.0     0.0     0.0
"Load.前进站"        1       11.0        2.3        0.0        0.0     0.0     0.0
"Load.港沿站"        1        1.2        1.2        0.0        0.0     0.0     0.0
"Load.庙镇站"        1       18.8        0.9        0.0        0.0     0.0     0.0
"Load.前卫站"        1       11.0        2.3        0.0        0.0     0.0     0.0
"Load.五滧站"        1       31.5        7.8        0.0        0.0     0.0     0.0

Total Circuit Losses =    0.0 +j -266.5
